2012-07-07 18:25:43,921 - workers.workers.FoamRunner:INFO - Running: /home/florian/flof/src/tests/files/cavity.target
/*---------------------------------------------------------------------------*\
| =========                 |                                                 |
| \\      /  F ield         | OpenFOAM: The Open Source CFD Toolbox           |
|  \\    /   O peration     | Version:  2.1.1                                 |
|   \\  /    A nd           | Web:      www.OpenFOAM.org                      |
|    \\/     M anipulation  |                                                 |
\*---------------------------------------------------------------------------*/
Build  : 2.1.1-221db2718bbb
Exec   : /home/florian/software/OpenFOAM/OpenFOAM-2.1.1/platforms/linux64GccDPOpt/bin/icoFoam -case /home/florian/flof/src/tests/files/cavity.target -parallel
Date   : Jul 07 2012
Time   : 18:25:47
Host   : "horus"
PID    : 3080
Case   : /home/florian/flof/src/tests/files/cavity.target
nProcs : 2
Slaves :
1
(
"horus.3082"
)

Pstream initialized with:
floatTransfer     : 0
nProcsSimpleSum   : 0
commsType         : nonBlocking
sigFpe : Enabling floating point exception trapping (FOAM_SIGFPE).
fileModificationChecking : Monitoring run-time modified files using timeStampMaster
allowSystemOperations : Disallowing user-supplied system call operations

// * * * * * * * * * * * * * * * * * * * * * * * * * * * * * * * * * * * * * //
Create time

Create mesh for time = 0

Reading transportProperties

Reading field p

Reading field U

Reading/calculating face flux field phi


Starting time loop

Time = 0.005

Courant Number mean: 0 max: 0
DILUPBiCG:  Solving for Ux, Initial residual = 1, Final residual = 4.73711e-06, No Iterations 10
DILUPBiCG:  Solving for Uy, Initial residual = 0, Final residual = 0, No Iterations 0
DICPCG:  Solving for p, Initial residual = 1, Final residual = 5.66841e-07, No Iterations 40
time step continuity errors : sum local = 3.78689e-09, global = 2.77933e-19, cumulative = 2.77933e-19
DICPCG:  Solving for p, Initial residual = 0.523592, Final residual = 8.51439e-07, No Iterations 39
time step continuity errors : sum local = 9.41196e-09, global = -1.62293e-19, cumulative = 1.1564e-19
ExecutionTime = 0.02 s  ClockTime = 0 s

Time = 0.01

Courant Number mean: 0.0976805 max: 0.585722
DILUPBiCG:  Solving for Ux, Initial residual = 0.148584, Final residual = 6.18044e-06, No Iterations 8
DILUPBiCG:  Solving for Uy, Initial residual = 0.256618, Final residual = 5.05961e-06, No Iterations 8
DICPCG:  Solving for p, Initial residual = 0.379233, Final residual = 4.79055e-07, No Iterations 39
time step continuity errors : sum local = 4.46497e-09, global = -4.94323e-19, cumulative = -3.78683e-19
DICPCG:  Solving for p, Initial residual = 0.286932, Final residual = 8.27536e-07, No Iterations 38
time step continuity errors : sum local = 8.39855e-09, global = 5.46973e-19, cumulative = 1.6829e-19
ExecutionTime = 0.03 s  ClockTime = 0 s

Time = 0.015

Courant Number mean: 0.144685 max: 0.758284
DILUPBiCG:  Solving for Ux, Initial residual = 0.0448669, Final residual = 2.78802e-06, No Iterations 8
DILUPBiCG:  Solving for Uy, Initial residual = 0.078239, Final residual = 5.2207e-06, No Iterations 7
DICPCG:  Solving for p, Initial residual = 0.109579, Final residual = 7.5002e-07, No Iterations 37
time step continuity errors : sum local = 6.03945e-09, global = -6.46028e-19, cumulative = -4.77738e-19
DICPCG:  Solving for p, Initial residual = 0.0826394, Final residual = 4.70222e-07, No Iterations 37
time step continuity errors : sum local = 3.83304e-09, global = -1.18949e-18, cumulative = -1.66722e-18
ExecutionTime = 0.03 s  ClockTime = 0 s

Time = 0.02

Courant Number mean: 0.167376 max: 0.800345
DILUPBiCG:  Solving for Ux, Initial residual = 0.0235436, Final residual = 1.10421e-06, No Iterations 9
DILUPBiCG:  Solving for Uy, Initial residual = 0.0468573, Final residual = 2.84985e-06, No Iterations 7
DICPCG:  Solving for p, Initial residual = 0.0526636, Final residual = 7.14962e-07, No Iterations 37
time step continuity errors : sum local = 5.72595e-09, global = -8.48853e-19, cumulative = -2.51608e-18
DICPCG:  Solving for p, Initial residual = 0.0408619, Final residual = 4.8966e-07, No Iterations 37
time step continuity errors : sum local = 3.95618e-09, global = -2.86453e-19, cumulative = -2.80253e-18
ExecutionTime = 0.03 s  ClockTime = 0 s

Time = 0.025

Courant Number mean: 0.182131 max: 0.81983
DILUPBiCG:  Solving for Ux, Initial residual = 0.0148807, Final residual = 8.075e-06, No Iterations 7
DILUPBiCG:  Solving for Uy, Initial residual = 0.0300379, Final residual = 9.08456e-06, No Iterations 6
DICPCG:  Solving for p, Initial residual = 0.0345823, Final residual = 6.4022e-07, No Iterations 36
time step continuity errors : sum local = 5.18475e-09, global = 8.43476e-19, cumulative = -1.95905e-18
DICPCG:  Solving for p, Initial residual = 0.0265118, Final residual = 9.31368e-07, No Iterations 35
time step continuity errors : sum local = 7.51215e-09, global = -1.83717e-19, cumulative = -2.14277e-18
ExecutionTime = 0.03 s  ClockTime = 0 s

Time = 0.03

Courant Number mean: 0.192228 max: 0.83034
DILUPBiCG:  Solving for Ux, Initial residual = 0.0102267, Final residual = 4.48149e-06, No Iterations 7
DILUPBiCG:  Solving for Uy, Initial residual = 0.0210669, Final residual = 4.16327e-06, No Iterations 7
DICPCG:  Solving for p, Initial residual = 0.0236706, Final residual = 7.17153e-07, No Iterations 35
time step continuity errors : sum local = 5.82004e-09, global = 1.4972e-19, cumulative = -1.99305e-18
DICPCG:  Solving for p, Initial residual = 0.0181784, Final residual = 4.49789e-07, No Iterations 35
time step continuity errors : sum local = 3.63679e-09, global = -5.31381e-19, cumulative = -2.52443e-18
ExecutionTime = 0.03 s  ClockTime = 0 s

Time = 0.035

Courant Number mean: 0.199397 max: 0.836869
DILUPBiCG:  Solving for Ux, Initial residual = 0.00735808, Final residual = 2.00087e-06, No Iterations 7
DILUPBiCG:  Solving for Uy, Initial residual = 0.0153342, Final residual = 3.90246e-06, No Iterations 6
DICPCG:  Solving for p, Initial residual = 0.01726, Final residual = 7.2257e-07, No Iterations 35
time step continuity errors : sum local = 5.91304e-09, global = 6.33538e-19, cumulative = -1.89089e-18
DICPCG:  Solving for p, Initial residual = 0.0132772, Final residual = 5.34764e-07, No Iterations 35
time step continuity errors : sum local = 4.38044e-09, global = 1.06963e-18, cumulative = -8.21266e-19
ExecutionTime = 0.04 s  ClockTime = 0 s

Time = 0.04

Courant Number mean: 0.204648 max: 0.841166
DILUPBiCG:  Solving for Ux, Initial residual = 0.00544332, Final residual = 6.92956e-06, No Iterations 6
DILUPBiCG:  Solving for Uy, Initial residual = 0.0114523, Final residual = 3.66112e-06, No Iterations 6
DICPCG:  Solving for p, Initial residual = 0.0127667, Final residual = 5.99346e-07, No Iterations 35
time step continuity errors : sum local = 4.91558e-09, global = 4.78441e-19, cumulative = -3.42825e-19
DICPCG:  Solving for p, Initial residual = 0.00980569, Final residual = 9.26872e-07, No Iterations 34
time step continuity errors : sum local = 7.57843e-09, global = 5.06235e-19, cumulative = 1.63409e-19
ExecutionTime = 0.04 s  ClockTime = 0 s

Time = 0.045

Courant Number mean: 0.20856 max: 0.84411
DILUPBiCG:  Solving for Ux, Initial residual = 0.00408981, Final residual = 3.00313e-06, No Iterations 6
DILUPBiCG:  Solving for Uy, Initial residual = 0.00869632, Final residual = 6.75381e-06, No Iterations 6
DICPCG:  Solving for p, Initial residual = 0.00961829, Final residual = 4.68712e-07, No Iterations 35
time step continuity errors : sum local = 3.85119e-09, global = -2.14571e-19, cumulative = -5.11612e-20
DICPCG:  Solving for p, Initial residual = 0.00740454, Final residual = 7.25544e-07, No Iterations 34
time step continuity errors : sum local = 5.94399e-09, global = -7.42808e-20, cumulative = -1.25442e-19
ExecutionTime = 0.04 s  ClockTime = 0 s

Time = 0.05

Courant Number mean: 0.211524 max: 0.846186
DILUPBiCG:  Solving for Ux, Initial residual = 0.00312954, Final residual = 2.0381e-06, No Iterations 6
DILUPBiCG:  Solving for Uy, Initial residual = 0.00668078, Final residual = 5.16763e-06, No Iterations 6
DICPCG:  Solving for p, Initial residual = 0.0072896, Final residual = 8.10388e-07, No Iterations 34
time step continuity errors : sum local = 6.64535e-09, global = 1.19685e-18, cumulative = 1.07141e-18
DICPCG:  Solving for p, Initial residual = 0.00559984, Final residual = 5.56218e-07, No Iterations 34
time step continuity errors : sum local = 4.56293e-09, global = 8.31896e-19, cumulative = 1.9033e-18
ExecutionTime = 0.04 s  ClockTime = 0 s

Time = 0.055

Courant Number mean: 0.213827 max: 0.847676
DILUPBiCG:  Solving for Ux, Initial residual = 0.00241267, Final residual = 1.60047e-06, No Iterations 6
DILUPBiCG:  Solving for Uy, Initial residual = 0.00517702, Final residual = 1.12433e-06, No Iterations 6
DICPCG:  Solving for p, Initial residual = 0.00560625, Final residual = 6.04634e-07, No Iterations 34
time step continuity errors : sum local = 4.96441e-09, global = 2.48816e-19, cumulative = 2.15212e-18
DICPCG:  Solving for p, Initial residual = 0.0043097, Final residual = 9.74033e-07, No Iterations 33
time step continuity errors : sum local = 7.97911e-09, global = -4.65041e-19, cumulative = 1.68708e-18
ExecutionTime = 0.05 s  ClockTime = 0 s

Time = 0.06

Courant Number mean: 0.215628 max: 0.848764
DILUPBiCG:  Solving for Ux, Initial residual = 0.00186955, Final residual = 1.2926e-06, No Iterations 6
DILUPBiCG:  Solving for Uy, Initial residual = 0.00403485, Final residual = 6.27713e-07, No Iterations 6
DICPCG:  Solving for p, Initial residual = 0.0043196, Final residual = 9.40607e-07, No Iterations 31
time step continuity errors : sum local = 7.72436e-09, global = -6.2783e-19, cumulative = 1.05925e-18
DICPCG:  Solving for p, Initial residual = 0.00332108, Final residual = 9.26469e-07, No Iterations 32
time step continuity errors : sum local = 7.5935e-09, global = 1.03704e-18, cumulative = 2.09628e-18
ExecutionTime = 0.05 s  ClockTime = 0 s

Time = 0.065

Courant Number mean: 0.217024 max: 0.849569
DILUPBiCG:  Solving for Ux, Initial residual = 0.00145799, Final residual = 9.95372e-07, No Iterations 6
DILUPBiCG:  Solving for Uy, Initial residual = 0.00315882, Final residual = 6.88983e-06, No Iterations 5
DICPCG:  Solving for p, Initial residual = 0.00336629, Final residual = 8.41649e-07, No Iterations 32
time step continuity errors : sum local = 6.9142e-09, global = -1.07972e-18, cumulative = 1.01656e-18
DICPCG:  Solving for p, Initial residual = 0.0025896, Final residual = 9.40797e-07, No Iterations 31
time step continuity errors : sum local = 7.72206e-09, global = 1.16393e-18, cumulative = 2.18049e-18
ExecutionTime = 0.05 s  ClockTime = 0 s

Time = 0.07

Courant Number mean: 0.218122 max: 0.850171
DILUPBiCG:  Solving for Ux, Initial residual = 0.00114334, Final residual = 7.22337e-07, No Iterations 6
DILUPBiCG:  Solving for Uy, Initial residual = 0.00247996, Final residual = 5.36522e-06, No Iterations 5
DICPCG:  Solving for p, Initial residual = 0.00261355, Final residual = 9.35128e-07, No Iterations 31
time step continuity errors : sum local = 7.67106e-09, global = 6.26093e-19, cumulative = 2.80658e-18
DICPCG:  Solving for p, Initial residual = 0.00200924, Final residual = 6.784e-07, No Iterations 31
time step continuity errors : sum local = 5.57132e-09, global = -7.77632e-19, cumulative = 2.02895e-18
ExecutionTime = 0.05 s  ClockTime = 0 s

Time = 0.075

Courant Number mean: 0.218979 max: 0.850624
DILUPBiCG:  Solving for Ux, Initial residual = 0.000898976, Final residual = 9.43256e-06, No Iterations 5
DILUPBiCG:  Solving for Uy, Initial residual = 0.00195243, Final residual = 4.67816e-06, No Iterations 5
DICPCG:  Solving for p, Initial residual = 0.00200772, Final residual = 6.96819e-07, No Iterations 31
time step continuity errors : sum local = 5.71372e-09, global = 1.18188e-18, cumulative = 3.21083e-18
DICPCG:  Solving for p, Initial residual = 0.00153797, Final residual = 5.08608e-07, No Iterations 31
time step continuity errors : sum local = 4.17482e-09, global = 1.25913e-18, cumulative = 4.46996e-18
ExecutionTime = 0.05 s  ClockTime = 0 s

Time = 0.08

Courant Number mean: 0.219649 max: 0.850966
DILUPBiCG:  Solving for Ux, Initial residual = 0.000708645, Final residual = 9.06265e-06, No Iterations 4
DILUPBiCG:  Solving for Uy, Initial residual = 0.00154002, Final residual = 4.33309e-06, No Iterations 5
DICPCG:  Solving for p, Initial residual = 0.00166455, Final residual = 4.6678e-07, No Iterations 31
time step continuity errors : sum local = 3.83238e-09, global = 6.88711e-19, cumulative = 5.15867e-18
DICPCG:  Solving for p, Initial residual = 0.00129112, Final residual = 8.84913e-07, No Iterations 30
time step continuity errors : sum local = 7.24845e-09, global = 9.80044e-19, cumulative = 6.13871e-18
ExecutionTime = 0.06 s  ClockTime = 0 s

Time = 0.085

Courant Number mean: 0.220178 max: 0.851229
DILUPBiCG:  Solving for Ux, Initial residual = 0.000557449, Final residual = 7.03948e-06, No Iterations 4
DILUPBiCG:  Solving for Uy, Initial residual = 0.00121552, Final residual = 4.25277e-06, No Iterations 5
DICPCG:  Solving for p, Initial residual = 0.00127432, Final residual = 9.65645e-07, No Iterations 30
time step continuity errors : sum local = 7.92652e-09, global = 1.05929e-18, cumulative = 7.198e-18
DICPCG:  Solving for p, Initial residual = 0.000986736, Final residual = 6.56651e-07, No Iterations 30
time step continuity errors : sum local = 5.38171e-09, global = -7.30649e-19, cumulative = 6.46735e-18
ExecutionTime = 0.06 s  ClockTime = 0 s

Time = 0.09

Courant Number mean: 0.220596 max: 0.851431
DILUPBiCG:  Solving for Ux, Initial residual = 0.000439943, Final residual = 5.55892e-06, No Iterations 4
DILUPBiCG:  Solving for Uy, Initial residual = 0.000960702, Final residual = 4.30067e-06, No Iterations 5
DICPCG:  Solving for p, Initial residual = 0.0010044, Final residual = 7.35224e-07, No Iterations 30
time step continuity errors : sum local = 6.03787e-09, global = -1.43516e-19, cumulative = 6.32384e-18
DICPCG:  Solving for p, Initial residual = 0.000778097, Final residual = 5.00147e-07, No Iterations 30
time step continuity errors : sum local = 4.10084e-09, global = -4.96722e-19, cumulative = 5.82712e-18
ExecutionTime = 0.06 s  ClockTime = 0 s

Time = 0.095

Courant Number mean: 0.220924 max: 0.851586
DILUPBiCG:  Solving for Ux, Initial residual = 0.000347526, Final residual = 9.41136e-06, No Iterations 3
DILUPBiCG:  Solving for Uy, Initial residual = 0.000759764, Final residual = 4.46993e-06, No Iterations 5
DICPCG:  Solving for p, Initial residual = 0.00081825, Final residual = 5.85479e-07, No Iterations 30
time step continuity errors : sum local = 4.80418e-09, global = -1.48578e-18, cumulative = 4.34133e-18
DICPCG:  Solving for p, Initial residual = 0.000640701, Final residual = 4.10969e-07, No Iterations 30
time step continuity errors : sum local = 3.36686e-09, global = -1.2234e-19, cumulative = 4.21899e-18
ExecutionTime = 0.06 s  ClockTime = 0 s

Time = 0.1

Courant Number mean: 0.221184 max: 0.851706
DILUPBiCG:  Solving for Ux, Initial residual = 0.000274449, Final residual = 7.30895e-06, No Iterations 3
DILUPBiCG:  Solving for Uy, Initial residual = 0.000600975, Final residual = 4.79936e-06, No Iterations 5
DICPCG:  Solving for p, Initial residual = 0.000634109, Final residual = 4.42199e-07, No Iterations 30
time step continuity errors : sum local = 3.63129e-09, global = -8.02944e-19, cumulative = 3.41605e-18
DICPCG:  Solving for p, Initial residual = 0.000496377, Final residual = 7.8044e-07, No Iterations 29
time step continuity errors : sum local = 6.42515e-09, global = -4.43369e-19, cumulative = 2.97268e-18
ExecutionTime = 0.07 s  ClockTime = 0 s

Time = 0.105

Courant Number mean: 0.221388 max: 0.851799
DILUPBiCG:  Solving for Ux, Initial residual = 0.000217163, Final residual = 5.72357e-06, No Iterations 3
DILUPBiCG:  Solving for Uy, Initial residual = 0.000475586, Final residual = 5.22024e-06, No Iterations 5
DICPCG:  Solving for p, Initial residual = 0.000501408, Final residual = 7.92022e-07, No Iterations 29
time step continuity errors : sum local = 6.533e-09, global = 2.01584e-19, cumulative = 3.17426e-18
DICPCG:  Solving for p, Initial residual = 0.000392771, Final residual = 9.52017e-07, No Iterations 28
time step continuity errors : sum local = 7.85421e-09, global = 4.50648e-19, cumulative = 3.62491e-18
ExecutionTime = 0.07 s  ClockTime = 0 s

Time = 0.11

Courant Number mean: 0.22155 max: 0.851871
DILUPBiCG:  Solving for Ux, Initial residual = 0.000171914, Final residual = 4.48467e-06, No Iterations 3
DILUPBiCG:  Solving for Uy, Initial residual = 0.000376374, Final residual = 5.92501e-06, No Iterations 5
DICPCG:  Solving for p, Initial residual = 0.000395154, Final residual = 8.95026e-07, No Iterations 28
time step continuity errors : sum local = 7.3821e-09, global = -2.39469e-19, cumulative = 3.38544e-18
DICPCG:  Solving for p, Initial residual = 0.000309842, Final residual = 6.41363e-07, No Iterations 28
time step continuity errors : sum local = 5.29445e-09, global = 2.45259e-19, cumulative = 3.6307e-18
ExecutionTime = 0.07 s  ClockTime = 0 s

Time = 0.115

Courant Number mean: 0.221677 max: 0.851928
DILUPBiCG:  Solving for Ux, Initial residual = 0.000136146, Final residual = 3.52136e-06, No Iterations 3
DILUPBiCG:  Solving for Uy, Initial residual = 0.000297785, Final residual = 7.2387e-06, No Iterations 5
DICPCG:  Solving for p, Initial residual = 0.000312494, Final residual = 6.66075e-07, No Iterations 28
time step continuity errors : sum local = 5.49576e-09, global = -1.27386e-19, cumulative = 3.50332e-18
DICPCG:  Solving for p, Initial residual = 0.00024552, Final residual = 9.29341e-07, No Iterations 27
time step continuity errors : sum local = 7.63703e-09, global = -8.3537e-19, cumulative = 2.66795e-18
ExecutionTime = 0.07 s  ClockTime = 0 s

Time = 0.12

Courant Number mean: 0.221778 max: 0.851972
DILUPBiCG:  Solving for Ux, Initial residual = 0.000107815, Final residual = 8.81885e-06, No Iterations 2
DILUPBiCG:  Solving for Uy, Initial residual = 0.000235417, Final residual = 7.77355e-08, No Iterations 6
DICPCG:  Solving for p, Initial residual = 0.000269714, Final residual = 6.22557e-07, No Iterations 28
time step continuity errors : sum local = 5.14369e-09, global = 8.24534e-19, cumulative = 3.49248e-18
DICPCG:  Solving for p, Initial residual = 0.000217044, Final residual = 9.08289e-07, No Iterations 27
time step continuity errors : sum local = 7.48304e-09, global = -5.64137e-20, cumulative = 3.43607e-18
ExecutionTime = 0.07 s  ClockTime = 0 s

Time = 0.125

Courant Number mean: 0.221856 max: 0.852007
DILUPBiCG:  Solving for Ux, Initial residual = 8.57369e-05, Final residual = 7.30442e-06, No Iterations 2
DILUPBiCG:  Solving for Uy, Initial residual = 0.00018678, Final residual = 6.37345e-08, No Iterations 6
DICPCG:  Solving for p, Initial residual = 0.00020607, Final residual = 8.84277e-07, No Iterations 27
time step continuity errors : sum local = 7.26807e-09, global = 8.32309e-19, cumulative = 4.26838e-18
DICPCG:  Solving for p, Initial residual = 0.000166587, Final residual = 6.72221e-07, No Iterations 27
time step continuity errors : sum local = 5.53633e-09, global = -1.04109e-18, cumulative = 3.22729e-18
ExecutionTime = 0.08 s  ClockTime = 0 s

Time = 0.13

Courant Number mean: 0.221918 max: 0.852033
DILUPBiCG:  Solving for Ux, Initial residual = 6.82311e-05, Final residual = 5.80514e-06, No Iterations 2
DILUPBiCG:  Solving for Uy, Initial residual = 0.000148515, Final residual = 8.50876e-06, No Iterations 3
DICPCG:  Solving for p, Initial residual = 0.000176169, Final residual = 7.56896e-07, No Iterations 15
time step continuity errors : sum local = 7.41118e-09, global = 2.94559e-19, cumulative = 3.52185e-18
DICPCG:  Solving for p, Initial residual = 0.000144477, Final residual = 5.44445e-07, No Iterations 15
time step continuity errors : sum local = 5.30326e-09, global = 4.52385e-19, cumulative = 3.97423e-18
ExecutionTime = 0.08 s  ClockTime = 0 s

Time = 0.135

Courant Number mean: 0.221969 max: 0.852055
DILUPBiCG:  Solving for Ux, Initial residual = 5.44567e-05, Final residual = 4.67108e-06, No Iterations 2
DILUPBiCG:  Solving for Uy, Initial residual = 0.000116711, Final residual = 7.17003e-06, No Iterations 3
DICPCG:  Solving for p, Initial residual = 0.000137106, Final residual = 5.86399e-07, No Iterations 27
time step continuity errors : sum local = 4.82613e-09, global = 3.6032e-19, cumulative = 4.33455e-18
DICPCG:  Solving for p, Initial residual = 0.000112523, Final residual = 9.04114e-07, No Iterations 15
time step continuity errors : sum local = 1.0924e-08, global = 2.07788e-19, cumulative = 4.54234e-18
ExecutionTime = 0.08 s  ClockTime = 0 s

Time = 0.14

Courant Number mean: 0.222008 max: 0.852072
DILUPBiCG:  Solving for Ux, Initial residual = 4.28144e-05, Final residual = 3.66572e-06, No Iterations 2
DILUPBiCG:  Solving for Uy, Initial residual = 9.32324e-05, Final residual = 5.41621e-06, No Iterations 3
DICPCG:  Solving for p, Initial residual = 0.000108423, Final residual = 6.23922e-07, No Iterations 27
time step continuity errors : sum local = 5.11769e-09, global = -8.5274e-19, cumulative = 3.6896e-18
DICPCG:  Solving for p, Initial residual = 8.89707e-05, Final residual = 8.08157e-07, No Iterations 26
time step continuity errors : sum local = 6.669e-09, global = 1.1564e-19, cumulative = 3.80524e-18
ExecutionTime = 0.08 s  ClockTime = 0 s

Time = 0.145

Courant Number mean: 0.22204 max: 0.852085
DILUPBiCG:  Solving for Ux, Initial residual = 3.41854e-05, Final residual = 2.91299e-06, No Iterations 2
DILUPBiCG:  Solving for Uy, Initial residual = 7.31328e-05, Final residual = 8.53349e-06, No Iterations 2
DICPCG:  Solving for p, Initial residual = 8.96278e-05, Final residual = 7.63775e-07, No Iterations 14
time step continuity errors : sum local = 7.20844e-09, global = 4.46678e-20, cumulative = 3.84991e-18
DICPCG:  Solving for p, Initial residual = 7.41744e-05, Final residual = 6.09283e-07, No Iterations 14
time step continuity errors : sum local = 6.62091e-09, global = 4.60822e-19, cumulative = 4.31073e-18
ExecutionTime = 0.08 s  ClockTime = 0 s

Time = 0.15

Courant Number mean: 0.222065 max: 0.852095
DILUPBiCG:  Solving for Ux, Initial residual = 2.70949e-05, Final residual = 2.29225e-06, No Iterations 2
DILUPBiCG:  Solving for Uy, Initial residual = 5.77789e-05, Final residual = 6.94163e-06, No Iterations 2
DICPCG:  Solving for p, Initial residual = 7.01895e-05, Final residual = 8.47136e-07, No Iterations 14
time step continuity errors : sum local = 9.74518e-09, global = 4.73974e-20, cumulative = 4.35813e-18
DICPCG:  Solving for p, Initial residual = 5.80209e-05, Final residual = 7.22551e-07, No Iterations 14
time step continuity errors : sum local = 8.61918e-09, global = 1.31274e-18, cumulative = 5.67086e-18
ExecutionTime = 0.08 s  ClockTime = 0 s

Time = 0.155

Courant Number mean: 0.222084 max: 0.852103
DILUPBiCG:  Solving for Ux, Initial residual = 2.14277e-05, Final residual = 9.14278e-06, No Iterations 1
DILUPBiCG:  Solving for Uy, Initial residual = 4.56987e-05, Final residual = 8.11183e-06, No Iterations 1
DICPCG:  Solving for p, Initial residual = 0.000136423, Final residual = 6.8977e-07, No Iterations 26
time step continuity errors : sum local = 5.67984e-09, global = 3.05726e-19, cumulative = 5.97659e-18
DICPCG:  Solving for p, Initial residual = 0.000128806, Final residual = 5.41132e-07, No Iterations 26
time step continuity errors : sum local = 4.46218e-09, global = -1.16748e-18, cumulative = 4.8091e-18
ExecutionTime = 0.09 s  ClockTime = 0 s

Time = 0.16

Courant Number mean: 0.222098 max: 0.85211
DILUPBiCG:  Solving for Ux, Initial residual = 1.8463e-05, Final residual = 8.23422e-06, No Iterations 1
DILUPBiCG:  Solving for Uy, Initial residual = 3.59877e-05, Final residual = 6.45258e-06, No Iterations 1
DICPCG:  Solving for p, Initial residual = 0.00010067, Final residual = 4.80561e-07, No Iterations 26
time step continuity errors : sum local = 3.94393e-09, global = -1.05466e-19, cumulative = 4.70364e-18
DICPCG:  Solving for p, Initial residual = 9.64014e-05, Final residual = 3.95927e-07, No Iterations 26
time step continuity errors : sum local = 3.24329e-09, global = 3.63132e-19, cumulative = 5.06677e-18
ExecutionTime = 0.09 s  ClockTime = 0 s

Time = 0.165

Courant Number mean: 0.222109 max: 0.852115
DILUPBiCG:  Solving for Ux, Initial residual = 1.53203e-05, Final residual = 7.2735e-06, No Iterations 1
DILUPBiCG:  Solving for Uy, Initial residual = 2.91847e-05, Final residual = 5.40331e-06, No Iterations 1
DICPCG:  Solving for p, Initial residual = 8.61311e-05, Final residual = 9.86316e-07, No Iterations 25
time step continuity errors : sum local = 8.11615e-09, global = -2.91085e-19, cumulative = 4.77569e-18
DICPCG:  Solving for p, Initial residual = 8.30198e-05, Final residual = 9.39834e-07, No Iterations 25
time step continuity errors : sum local = 7.71967e-09, global = -7.12203e-19, cumulative = 4.06348e-18
ExecutionTime = 0.09 s  ClockTime = 0 s

Time = 0.17

Courant Number mean: 0.222118 max: 0.852119
DILUPBiCG:  Solving for Ux, Initial residual = 1.28129e-05, Final residual = 6.10252e-06, No Iterations 1
DILUPBiCG:  Solving for Uy, Initial residual = 2.37709e-05, Final residual = 4.44925e-06, No Iterations 1
DICPCG:  Solving for p, Initial residual = 7.02626e-05, Final residual = 9.17844e-07, No Iterations 25
time step continuity errors : sum local = 7.57655e-09, global = -1.46916e-18, cumulative = 2.59433e-18
DICPCG:  Solving for p, Initial residual = 6.79284e-05, Final residual = 8.14362e-07, No Iterations 25
time step continuity errors : sum local = 6.704e-09, global = 4.89112e-19, cumulative = 3.08344e-18
ExecutionTime = 0.09 s  ClockTime = 0 s

Time = 0.175

Courant Number mean: 0.222125 max: 0.852121
DILUPBiCG:  Solving for Ux, Initial residual = 1.06496e-05, Final residual = 5.30656e-06, No Iterations 1
DILUPBiCG:  Solving for Uy, Initial residual = 1.94638e-05, Final residual = 3.70289e-06, No Iterations 1
DICPCG:  Solving for p, Initial residual = 5.97497e-05, Final residual = 7.62343e-07, No Iterations 25
time step continuity errors : sum local = 6.2753e-09, global = 1.36154e-19, cumulative = 3.21959e-18
DICPCG:  Solving for p, Initial residual = 5.82238e-05, Final residual = 6.95981e-07, No Iterations 25
time step continuity errors : sum local = 5.71408e-09, global = -1.0415e-18, cumulative = 2.17809e-18
ExecutionTime = 0.09 s  ClockTime = 0 s

Time = 0.18

Courant Number mean: 0.222131 max: 0.852124
DILUPBiCG:  Solving for Ux, Initial residual = 8.8985e-06, Final residual = 8.8985e-06, No Iterations 0
DILUPBiCG:  Solving for Uy, Initial residual = 1.59566e-05, Final residual = 3.05892e-06, No Iterations 1
DICPCG:  Solving for p, Initial residual = 8.56249e-05, Final residual = 7.95479e-07, No Iterations 25
time step continuity errors : sum local = 6.52672e-09, global = -3.90843e-19, cumulative = 1.78725e-18
DICPCG:  Solving for p, Initial residual = 8.48948e-05, Final residual = 7.88868e-07, No Iterations 25
time step continuity errors : sum local = 6.46327e-09, global = 4.33525e-19, cumulative = 2.22077e-18
ExecutionTime = 0.09 s  ClockTime = 0 s

Time = 0.185

Courant Number mean: 0.222135 max: 0.852126
DILUPBiCG:  Solving for Ux, Initial residual = 8.59204e-06, Final residual = 8.59204e-06, No Iterations 0
DILUPBiCG:  Solving for Uy, Initial residual = 1.30974e-05, Final residual = 2.67606e-06, No Iterations 1
DICPCG:  Solving for p, Initial residual = 6.83276e-05, Final residual = 6.06098e-07, No Iterations 25
time step continuity errors : sum local = 4.97442e-09, global = -9.64244e-19, cumulative = 1.25653e-18
DICPCG:  Solving for p, Initial residual = 6.86469e-05, Final residual = 7.17803e-07, No Iterations 25
time step continuity errors : sum local = 5.89111e-09, global = 6.51653e-19, cumulative = 1.90818e-18
ExecutionTime = 0.1 s  ClockTime = 0 s

Time = 0.19

Courant Number mean: 0.222138 max: 0.852127
DILUPBiCG:  Solving for Ux, Initial residual = 7.77505e-06, Final residual = 7.77505e-06, No Iterations 0
DILUPBiCG:  Solving for Uy, Initial residual = 1.12179e-05, Final residual = 2.20481e-06, No Iterations 1
DICPCG:  Solving for p, Initial residual = 5.87118e-05, Final residual = 6.20586e-07, No Iterations 25
time step continuity errors : sum local = 5.09179e-09, global = 3.77443e-19, cumulative = 2.28562e-18
DICPCG:  Solving for p, Initial residual = 5.9319e-05, Final residual = 6.55757e-07, No Iterations 25
time step continuity errors : sum local = 5.38183e-09, global = 7.52734e-20, cumulative = 2.3609e-18
ExecutionTime = 0.1 s  ClockTime = 0 s

Time = 0.195

Courant Number mean: 0.22214 max: 0.852128
DILUPBiCG:  Solving for Ux, Initial residual = 6.97389e-06, Final residual = 6.97389e-06, No Iterations 0
DILUPBiCG:  Solving for Uy, Initial residual = 9.68803e-06, Final residual = 9.68803e-06, No Iterations 0
DICPCG:  Solving for p, Initial residual = 2.14987e-06, Final residual = 7.52603e-07, No Iterations 4
time step continuity errors : sum local = 6.48564e-09, global = 7.10548e-20, cumulative = 2.43195e-18
DICPCG:  Solving for p, Initial residual = 1.21019e-06, Final residual = 9.54299e-07, No Iterations 2
time step continuity errors : sum local = 8.3259e-09, global = -2.97371e-19, cumulative = 2.13458e-18
ExecutionTime = 0.1 s  ClockTime = 0 s

Time = 0.2

Courant Number mean: 0.222141 max: 0.852128
DILUPBiCG:  Solving for Ux, Initial residual = 5.97903e-06, Final residual = 5.97903e-06, No Iterations 0
DILUPBiCG:  Solving for Uy, Initial residual = 9.64638e-06, Final residual = 9.64638e-06, No Iterations 0
DICPCG:  Solving for p, Initial residual = 1.76578e-06, Final residual = 9.38397e-07, No Iterations 3
time step continuity errors : sum local = 8.53542e-09, global = -7.12782e-19, cumulative = 1.4218e-18
DICPCG:  Solving for p, Initial residual = 1.68422e-06, Final residual = 7.91564e-07, No Iterations 1
time step continuity errors : sum local = 7.43524e-09, global = 5.77703e-19, cumulative = 1.9995e-18
ExecutionTime = 0.1 s  ClockTime = 0 s

Time = 0.205

Courant Number mean: 0.222142 max: 0.852128
DILUPBiCG:  Solving for Ux, Initial residual = 5.41218e-06, Final residual = 5.41218e-06, No Iterations 0
DILUPBiCG:  Solving for Uy, Initial residual = 9.40435e-06, Final residual = 9.40435e-06, No Iterations 0
DICPCG:  Solving for p, Initial residual = 1.08729e-06, Final residual = 9.69487e-07, No Iterations 1
time step continuity errors : sum local = 9.03757e-09, global = -1.60804e-19, cumulative = 1.8387e-18
DICPCG:  Solving for p, Initial residual = 1.45003e-06, Final residual = 6.34607e-07, No Iterations 3
time step continuity errors : sum local = 6.64942e-09, global = 1.31356e-19, cumulative = 1.97005e-18
ExecutionTime = 0.1 s  ClockTime = 0 s

Time = 0.21

Courant Number mean: 0.222143 max: 0.852128
DILUPBiCG:  Solving for Ux, Initial residual = 4.97103e-06, Final residual = 4.97103e-06, No Iterations 0
DILUPBiCG:  Solving for Uy, Initial residual = 9.20917e-06, Final residual = 9.20917e-06, No Iterations 0
DICPCG:  Solving for p, Initial residual = 1.24592e-06, Final residual = 6.1145e-07, No Iterations 1
time step continuity errors : sum local = 6.52545e-09, global = -6.66625e-19, cumulative = 1.30343e-18
DICPCG:  Solving for p, Initial residual = 6.108e-07, Final residual = 6.108e-07, No Iterations 0
time step continuity errors : sum local = 6.57335e-09, global = 5.46105e-19, cumulative = 1.84953e-18
ExecutionTime = 0.1 s  ClockTime = 0 s

Time = 0.215

Courant Number mean: 0.222144 max: 0.852128
DILUPBiCG:  Solving for Ux, Initial residual = 4.77501e-06, Final residual = 4.77501e-06, No Iterations 0
DILUPBiCG:  Solving for Uy, Initial residual = 8.76073e-06, Final residual = 8.76073e-06, No Iterations 0
DICPCG:  Solving for p, Initial residual = 1.11629e-06, Final residual = 9.38185e-07, No Iterations 1
time step continuity errors : sum local = 9.32331e-09, global = 1.61474e-18, cumulative = 3.46427e-18
DICPCG:  Solving for p, Initial residual = 1.23453e-06, Final residual = 8.70498e-07, No Iterations 2
time step continuity errors : sum local = 8.92975e-09, global = 8.01621e-19, cumulative = 4.26589e-18
ExecutionTime = 0.11 s  ClockTime = 0 s

Time = 0.22

Courant Number mean: 0.222144 max: 0.852128
DILUPBiCG:  Solving for Ux, Initial residual = 4.42755e-06, Final residual = 4.42755e-06, No Iterations 0
DILUPBiCG:  Solving for Uy, Initial residual = 8.38977e-06, Final residual = 8.38977e-06, No Iterations 0
DICPCG:  Solving for p, Initial residual = 1.57957e-06, Final residual = 7.121e-07, No Iterations 1
time step continuity errors : sum local = 7.699e-09, global = -6.2386e-19, cumulative = 3.64203e-18
DICPCG:  Solving for p, Initial residual = 7.73029e-07, Final residual = 7.73029e-07, No Iterations 0
time step continuity errors : sum local = 8.23226e-09, global = -1.41779e-19, cumulative = 3.50026e-18
ExecutionTime = 0.11 s  ClockTime = 0 s

Time = 0.225

Courant Number mean: 0.222145 max: 0.852128
DILUPBiCG:  Solving for Ux, Initial residual = 4.2209e-06, Final residual = 4.2209e-06, No Iterations 0
DILUPBiCG:  Solving for Uy, Initial residual = 8.00193e-06, Final residual = 8.00193e-06, No Iterations 0
DICPCG:  Solving for p, Initial residual = 1.15861e-06, Final residual = 8.97635e-07, No Iterations 2
time step continuity errors : sum local = 9.43739e-09, global = 6.11617e-19, cumulative = 4.11187e-18
DICPCG:  Solving for p, Initial residual = 1.17753e-06, Final residual = 5.88078e-07, No Iterations 1
time step continuity errors : sum local = 6.93312e-09, global = -8.02365e-20, cumulative = 4.03164e-18
ExecutionTime = 0.11 s  ClockTime = 0 s

Time = 0.23

Courant Number mean: 0.222146 max: 0.852128
DILUPBiCG:  Solving for Ux, Initial residual = 3.93045e-06, Final residual = 3.93045e-06, No Iterations 0
DILUPBiCG:  Solving for Uy, Initial residual = 7.70779e-06, Final residual = 7.70779e-06, No Iterations 0
DICPCG:  Solving for p, Initial residual = 7.9441e-07, Final residual = 7.9441e-07, No Iterations 0
time step continuity errors : sum local = 8.63336e-09, global = 8.2139e-19, cumulative = 4.85303e-18
DICPCG:  Solving for p, Initial residual = 1.19411e-06, Final residual = 8.89425e-07, No Iterations 1
time step continuity errors : sum local = 9.44787e-09, global = -1.76959e-18, cumulative = 3.08344e-18
ExecutionTime = 0.11 s  ClockTime = 0 s

Time = 0.235

Courant Number mean: 0.222146 max: 0.852128
DILUPBiCG:  Solving for Ux, Initial residual = 3.71321e-06, Final residual = 3.71321e-06, No Iterations 0
DILUPBiCG:  Solving for Uy, Initial residual = 7.31586e-06, Final residual = 7.31586e-06, No Iterations 0
DICPCG:  Solving for p, Initial residual = 1.18679e-06, Final residual = 9.62265e-07, No Iterations 1
time step continuity errors : sum local = 1.00879e-08, global = 1.21637e-18, cumulative = 4.29981e-18
DICPCG:  Solving for p, Initial residual = 1.24825e-06, Final residual = 8.65761e-07, No Iterations 1
time step continuity errors : sum local = 9.3237e-09, global = -1.15971e-18, cumulative = 3.1401e-18
ExecutionTime = 0.11 s  ClockTime = 0 s

Time = 0.24

Courant Number mean: 0.222147 max: 0.852129
DILUPBiCG:  Solving for Ux, Initial residual = 3.49886e-06, Final residual = 3.49886e-06, No Iterations 0
DILUPBiCG:  Solving for Uy, Initial residual = 6.94533e-06, Final residual = 6.94533e-06, No Iterations 0
DICPCG:  Solving for p, Initial residual = 1.12969e-06, Final residual = 9.93713e-07, No Iterations 1
time step continuity errors : sum local = 1.04085e-08, global = 5.2435e-19, cumulative = 3.66445e-18
DICPCG:  Solving for p, Initial residual = 1.1522e-06, Final residual = 8.67635e-07, No Iterations 1
time step continuity errors : sum local = 9.41181e-09, global = -1.14151e-20, cumulative = 3.65304e-18
ExecutionTime = 0.11 s  ClockTime = 0 s

Time = 0.245

Courant Number mean: 0.222148 max: 0.852129
DILUPBiCG:  Solving for Ux, Initial residual = 3.29486e-06, Final residual = 3.29486e-06, No Iterations 0
DILUPBiCG:  Solving for Uy, Initial residual = 6.61243e-06, Final residual = 6.61243e-06, No Iterations 0
DICPCG:  Solving for p, Initial residual = 1.08714e-06, Final residual = 9.63515e-07, No Iterations 1
time step continuity errors : sum local = 1.02336e-08, global = 1.07037e-19, cumulative = 3.76007e-18
DICPCG:  Solving for p, Initial residual = 1.08017e-06, Final residual = 8.4258e-07, No Iterations 1
time step continuity errors : sum local = 9.27951e-09, global = 5.11942e-19, cumulative = 4.27202e-18
ExecutionTime = 0.11 s  ClockTime = 0 s

Time = 0.25

Courant Number mean: 0.222148 max: 0.852129
DILUPBiCG:  Solving for Ux, Initial residual = 3.10301e-06, Final residual = 3.10301e-06, No Iterations 0
DILUPBiCG:  Solving for Uy, Initial residual = 6.30343e-06, Final residual = 6.30343e-06, No Iterations 0
DICPCG:  Solving for p, Initial residual = 1.03483e-06, Final residual = 8.95471e-07, No Iterations 1
time step continuity errors : sum local = 9.74441e-09, global = -2.55599e-19, cumulative = 4.01642e-18
DICPCG:  Solving for p, Initial residual = 1.00457e-06, Final residual = 7.87481e-07, No Iterations 1
time step continuity errors : sum local = 8.89119e-09, global = -4.38654e-19, cumulative = 3.57776e-18
ExecutionTime = 0.11 s  ClockTime = 0 s

Time = 0.255

Courant Number mean: 0.222149 max: 0.852129
DILUPBiCG:  Solving for Ux, Initial residual = 2.92167e-06, Final residual = 2.92167e-06, No Iterations 0
DILUPBiCG:  Solving for Uy, Initial residual = 6.00289e-06, Final residual = 6.00289e-06, No Iterations 0
DICPCG:  Solving for p, Initial residual = 9.5368e-07, Final residual = 9.5368e-07, No Iterations 0
time step continuity errors : sum local = 1.02545e-08, global = -3.1284e-19, cumulative = 3.26492e-18
DICPCG:  Solving for p, Initial residual = 1.24144e-06, Final residual = 8.26632e-07, No Iterations 2
time step continuity errors : sum local = 9.28738e-09, global = -4.84728e-20, cumulative = 3.21645e-18
ExecutionTime = 0.12 s  ClockTime = 0 s

Time = 0.26

Courant Number mean: 0.222149 max: 0.852129
DILUPBiCG:  Solving for Ux, Initial residual = 2.69082e-06, Final residual = 2.69082e-06, No Iterations 0
DILUPBiCG:  Solving for Uy, Initial residual = 5.65449e-06, Final residual = 5.65449e-06, No Iterations 0
DICPCG:  Solving for p, Initial residual = 1.04607e-06, Final residual = 7.40045e-07, No Iterations 1
time step continuity errors : sum local = 8.60803e-09, global = -2.68999e-19, cumulative = 2.94745e-18
DICPCG:  Solving for p, Initial residual = 1.08848e-06, Final residual = 4.86538e-07, No Iterations 1
time step continuity errors : sum local = 6.54253e-09, global = -1.00842e-18, cumulative = 1.93904e-18
ExecutionTime = 0.12 s  ClockTime = 0 s

Time = 0.265

Courant Number mean: 0.22215 max: 0.85213
DILUPBiCG:  Solving for Ux, Initial residual = 2.59276e-06, Final residual = 2.59276e-06, No Iterations 0
DILUPBiCG:  Solving for Uy, Initial residual = 5.44692e-06, Final residual = 5.44692e-06, No Iterations 0
DICPCG:  Solving for p, Initial residual = 5.61126e-07, Final residual = 5.61126e-07, No Iterations 0
time step continuity errors : sum local = 7.15485e-09, global = 2.49478e-19, cumulative = 2.18851e-18
DICPCG:  Solving for p, Initial residual = 8.32924e-07, Final residual = 8.32924e-07, No Iterations 0
time step continuity errors : sum local = 9.38286e-09, global = 4.36917e-19, cumulative = 2.62543e-18
ExecutionTime = 0.12 s  ClockTime = 0 s

Time = 0.27

Courant Number mean: 0.22215 max: 0.85213
DILUPBiCG:  Solving for Ux, Initial residual = 2.48234e-06, Final residual = 2.48234e-06, No Iterations 0
DILUPBiCG:  Solving for Uy, Initial residual = 5.20457e-06, Final residual = 5.20457e-06, No Iterations 0
DICPCG:  Solving for p, Initial residual = 1.27104e-06, Final residual = 5.94409e-07, No Iterations 2
time step continuity errors : sum local = 7.42853e-09, global = -5.69762e-19, cumulative = 2.05567e-18
DICPCG:  Solving for p, Initial residual = 9.15423e-07, Final residual = 9.15423e-07, No Iterations 0
time step continuity errors : sum local = 1.00547e-08, global = 2.98778e-19, cumulative = 2.35445e-18
ExecutionTime = 0.12 s  ClockTime = 0 s

Time = 0.275

Courant Number mean: 0.222151 max: 0.85213
DILUPBiCG:  Solving for Ux, Initial residual = 2.29462e-06, Final residual = 2.29462e-06, No Iterations 0
DILUPBiCG:  Solving for Uy, Initial residual = 4.80374e-06, Final residual = 4.80374e-06, No Iterations 0
DICPCG:  Solving for p, Initial residual = 1.24216e-06, Final residual = 6.78974e-07, No Iterations 1
time step continuity errors : sum local = 8.11346e-09, global = 2.43108e-19, cumulative = 2.59755e-18
DICPCG:  Solving for p, Initial residual = 9.79114e-07, Final residual = 9.79114e-07, No Iterations 0
time step continuity errors : sum local = 1.05738e-08, global = -4.73809e-19, cumulative = 2.12374e-18
ExecutionTime = 0.12 s  ClockTime = 0 s

Time = 0.28

Courant Number mean: 0.222151 max: 0.85213
DILUPBiCG:  Solving for Ux, Initial residual = 2.2248e-06, Final residual = 2.2248e-06, No Iterations 0
DILUPBiCG:  Solving for Uy, Initial residual = 4.63573e-06, Final residual = 4.63573e-06, No Iterations 0
DICPCG:  Solving for p, Initial residual = 1.59898e-06, Final residual = 8.3488e-07, No Iterations 1
time step continuity errors : sum local = 9.40407e-09, global = 4.34601e-19, cumulative = 2.55835e-18
DICPCG:  Solving for p, Initial residual = 1.06517e-06, Final residual = 7.74383e-07, No Iterations 1
time step continuity errors : sum local = 8.91976e-09, global = 7.73248e-19, cumulative = 3.33159e-18
ExecutionTime = 0.13 s  ClockTime = 0 s

Time = 0.285

Courant Number mean: 0.222151 max: 0.85213
DILUPBiCG:  Solving for Ux, Initial residual = 2.08083e-06, Final residual = 2.08083e-06, No Iterations 0
DILUPBiCG:  Solving for Uy, Initial residual = 4.3579e-06, Final residual = 4.3579e-06, No Iterations 0
DICPCG:  Solving for p, Initial residual = 9.96777e-07, Final residual = 9.96777e-07, No Iterations 0
time step continuity errors : sum local = 1.07428e-08, global = 2.74459e-19, cumulative = 3.60605e-18
DICPCG:  Solving for p, Initial residual = 1.27193e-06, Final residual = 7.1953e-07, No Iterations 2
time step continuity errors : sum local = 8.51571e-09, global = -6.30642e-19, cumulative = 2.97541e-18
ExecutionTime = 0.13 s  ClockTime = 0 s

Time = 0.29

Courant Number mean: 0.222152 max: 0.85213
DILUPBiCG:  Solving for Ux, Initial residual = 1.9079e-06, Final residual = 1.9079e-06, No Iterations 0
DILUPBiCG:  Solving for Uy, Initial residual = 4.08632e-06, Final residual = 4.08632e-06, No Iterations 0
DICPCG:  Solving for p, Initial residual = 1.01824e-06, Final residual = 8.91161e-07, No Iterations 1
time step continuity errors : sum local = 9.93923e-09, global = 1.3129e-18, cumulative = 4.28831e-18
DICPCG:  Solving for p, Initial residual = 1.19508e-06, Final residual = 4.26197e-07, No Iterations 1
time step continuity errors : sum local = 6.13791e-09, global = 1.00172e-19, cumulative = 4.38848e-18
ExecutionTime = 0.13 s  ClockTime = 0 s

Time = 0.295

Courant Number mean: 0.222152 max: 0.852131
DILUPBiCG:  Solving for Ux, Initial residual = 1.84691e-06, Final residual = 1.84691e-06, No Iterations 0
DILUPBiCG:  Solving for Uy, Initial residual = 3.95246e-06, Final residual = 3.95246e-06, No Iterations 0
DICPCG:  Solving for p, Initial residual = 4.99829e-07, Final residual = 4.99829e-07, No Iterations 0
time step continuity errors : sum local = 6.7415e-09, global = -9.84014e-19, cumulative = 3.40447e-18
DICPCG:  Solving for p, Initial residual = 6.99947e-07, Final residual = 6.99947e-07, No Iterations 0
time step continuity errors : sum local = 8.38192e-09, global = 9.72764e-20, cumulative = 3.50174e-18
ExecutionTime = 0.13 s  ClockTime = 0 s

Time = 0.3

Courant Number mean: 0.222152 max: 0.852131
DILUPBiCG:  Solving for Ux, Initial residual = 1.76803e-06, Final residual = 1.76803e-06, No Iterations 0
DILUPBiCG:  Solving for Uy, Initial residual = 3.77802e-06, Final residual = 3.77802e-06, No Iterations 0
DICPCG:  Solving for p, Initial residual = 1.01069e-06, Final residual = 8.98463e-07, No Iterations 1
time step continuity errors : sum local = 9.99213e-09, global = 7.00126e-19, cumulative = 4.20187e-18
DICPCG:  Solving for p, Initial residual = 1.05628e-06, Final residual = 5.15491e-07, No Iterations 1
time step continuity errors : sum local = 6.84765e-09, global = 6.82176e-19, cumulative = 4.88405e-18
ExecutionTime = 0.13 s  ClockTime = 0 s

Time = 0.305

Courant Number mean: 0.222153 max: 0.852131
DILUPBiCG:  Solving for Ux, Initial residual = 1.64305e-06, Final residual = 1.64305e-06, No Iterations 0
DILUPBiCG:  Solving for Uy, Initial residual = 3.52065e-06, Final residual = 3.52065e-06, No Iterations 0
DICPCG:  Solving for p, Initial residual = 7.24391e-07, Final residual = 7.24391e-07, No Iterations 0
time step continuity errors : sum local = 8.55342e-09, global = -2.70157e-19, cumulative = 4.61389e-18
DICPCG:  Solving for p, Initial residual = 9.62989e-07, Final residual = 9.62989e-07, No Iterations 0
time step continuity errors : sum local = 1.0506e-08, global = 5.67198e-19, cumulative = 5.18109e-18
ExecutionTime = 0.13 s  ClockTime = 0 s

Time = 0.31

Courant Number mean: 0.222153 max: 0.852131
DILUPBiCG:  Solving for Ux, Initial residual = 1.57068e-06, Final residual = 1.57068e-06, No Iterations 0
DILUPBiCG:  Solving for Uy, Initial residual = 3.36075e-06, Final residual = 3.36075e-06, No Iterations 0
DICPCG:  Solving for p, Initial residual = 1.27769e-06, Final residual = 8.6023e-07, No Iterations 1
time step continuity errors : sum local = 9.66088e-09, global = -2.12585e-19, cumulative = 4.9685e-18
DICPCG:  Solving for p, Initial residual = 1.08084e-06, Final residual = 8.87501e-07, No Iterations 1
time step continuity errors : sum local = 9.88894e-09, global = 9.17426e-19, cumulative = 5.88593e-18
ExecutionTime = 0.14 s  ClockTime = 0 s

Time = 0.315

Courant Number mean: 0.222153 max: 0.852131
DILUPBiCG:  Solving for Ux, Initial residual = 1.48047e-06, Final residual = 1.48047e-06, No Iterations 0
DILUPBiCG:  Solving for Uy, Initial residual = 3.16977e-06, Final residual = 3.16977e-06, No Iterations 0
DICPCG:  Solving for p, Initial residual = 1.10485e-06, Final residual = 7.21516e-07, No Iterations 1
time step continuity errors : sum local = 8.53713e-09, global = -8.40829e-19, cumulative = 5.0451e-18
DICPCG:  Solving for p, Initial residual = 7.80066e-07, Final residual = 7.80066e-07, No Iterations 0
time step continuity errors : sum local = 9.01709e-09, global = -1.35906e-19, cumulative = 4.90919e-18
ExecutionTime = 0.14 s  ClockTime = 0 s

Time = 0.32

Courant Number mean: 0.222154 max: 0.852131
DILUPBiCG:  Solving for Ux, Initial residual = 1.40066e-06, Final residual = 1.40066e-06, No Iterations 0
DILUPBiCG:  Solving for Uy, Initial residual = 3.00278e-06, Final residual = 3.00278e-06, No Iterations 0
DICPCG:  Solving for p, Initial residual = 9.56748e-07, Final residual = 9.56748e-07, No Iterations 0
time step continuity errors : sum local = 1.04654e-08, global = -9.16599e-19, cumulative = 3.99259e-18
DICPCG:  Solving for p, Initial residual = 1.14179e-06, Final residual = 9.61378e-07, No Iterations 1
time step continuity errors : sum local = 1.05199e-08, global = 2.2003e-19, cumulative = 4.21262e-18
ExecutionTime = 0.14 s  ClockTime = 0 s

Time = 0.325

Courant Number mean: 0.222154 max: 0.852131
DILUPBiCG:  Solving for Ux, Initial residual = 1.31233e-06, Final residual = 1.31233e-06, No Iterations 0
DILUPBiCG:  Solving for Uy, Initial residual = 2.82539e-06, Final residual = 2.82539e-06, No Iterations 0
DICPCG:  Solving for p, Initial residual = 1.1888e-06, Final residual = 6.47702e-07, No Iterations 1
time step continuity errors : sum local = 7.96054e-09, global = 2.16142e-19, cumulative = 4.42877e-18
DICPCG:  Solving for p, Initial residual = 6.75162e-07, Final residual = 6.75162e-07, No Iterations 0
time step continuity errors : sum local = 8.18574e-09, global = -3.03906e-19, cumulative = 4.12486e-18
ExecutionTime = 0.14 s  ClockTime = 0 s

Time = 0.33

Courant Number mean: 0.222154 max: 0.852131
DILUPBiCG:  Solving for Ux, Initial residual = 1.24969e-06, Final residual = 1.24969e-06, No Iterations 0
DILUPBiCG:  Solving for Uy, Initial residual = 2.69253e-06, Final residual = 2.69253e-06, No Iterations 0
DICPCG:  Solving for p, Initial residual = 8.37043e-07, Final residual = 8.37043e-07, No Iterations 0
time step continuity errors : sum local = 9.51273e-09, global = 3.29383e-19, cumulative = 4.45424e-18
DICPCG:  Solving for p, Initial residual = 9.91391e-07, Final residual = 9.91391e-07, No Iterations 0
time step continuity errors : sum local = 1.0778e-08, global = 6.37177e-19, cumulative = 5.09142e-18
ExecutionTime = 0.15 s  ClockTime = 0 s

Time = 0.335

Courant Number mean: 0.222154 max: 0.852131
DILUPBiCG:  Solving for Ux, Initial residual = 1.19499e-06, Final residual = 1.19499e-06, No Iterations 0
DILUPBiCG:  Solving for Uy, Initial residual = 2.5713e-06, Final residual = 2.5713e-06, No Iterations 0
DICPCG:  Solving for p, Initial residual = 1.2254e-06, Final residual = 8.5317e-07, No Iterations 2
time step continuity errors : sum local = 9.68316e-09, global = 7.05833e-19, cumulative = 5.79725e-18
DICPCG:  Solving for p, Initial residual = 1.20852e-06, Final residual = 7.11083e-07, No Iterations 1
time step continuity errors : sum local = 8.53088e-09, global = 8.39175e-19, cumulative = 6.63643e-18
ExecutionTime = 0.15 s  ClockTime = 0 s

Time = 0.34

Courant Number mean: 0.222154 max: 0.852132
DILUPBiCG:  Solving for Ux, Initial residual = 1.10734e-06, Final residual = 1.10734e-06, No Iterations 0
DILUPBiCG:  Solving for Uy, Initial residual = 2.41561e-06, Final residual = 2.41561e-06, No Iterations 0
DICPCG:  Solving for p, Initial residual = 1.01663e-06, Final residual = 5.84025e-07, No Iterations 1
time step continuity errors : sum local = 7.49142e-09, global = 4.54701e-19, cumulative = 7.09113e-18
DICPCG:  Solving for p, Initial residual = 6.15048e-07, Final residual = 6.15048e-07, No Iterations 0
time step continuity errors : sum local = 7.74657e-09, global = 4.48332e-20, cumulative = 7.13596e-18
ExecutionTime = 0.15 s  ClockTime = 0 s

Time = 0.345

Courant Number mean: 0.222155 max: 0.852132
DILUPBiCG:  Solving for Ux, Initial residual = 1.05339e-06, Final residual = 1.05339e-06, No Iterations 0
DILUPBiCG:  Solving for Uy, Initial residual = 2.30414e-06, Final residual = 2.30414e-06, No Iterations 0
DICPCG:  Solving for p, Initial residual = 7.09016e-07, Final residual = 7.09016e-07, No Iterations 0
time step continuity errors : sum local = 8.51759e-09, global = 1.37866e-18, cumulative = 8.51462e-18
DICPCG:  Solving for p, Initial residual = 7.91364e-07, Final residual = 7.91364e-07, No Iterations 0
time step continuity errors : sum local = 9.19248e-09, global = -9.52085e-20, cumulative = 8.41942e-18
ExecutionTime = 0.15 s  ClockTime = 0 s

Time = 0.35

Courant Number mean: 0.222155 max: 0.852132
DILUPBiCG:  Solving for Ux, Initial residual = 1.00812e-06, Final residual = 1.00812e-06, No Iterations 0
DILUPBiCG:  Solving for Uy, Initial residual = 2.2019e-06, Final residual = 2.2019e-06, No Iterations 0
DICPCG:  Solving for p, Initial residual = 9.40937e-07, Final residual = 9.40937e-07, No Iterations 0
time step continuity errors : sum local = 1.04183e-08, global = 8.08734e-19, cumulative = 9.22815e-18
DICPCG:  Solving for p, Initial residual = 1.1177e-06, Final residual = 8.51125e-07, No Iterations 1
time step continuity errors : sum local = 9.66503e-09, global = 7.85987e-19, cumulative = 1.00141e-17
ExecutionTime = 0.15 s  ClockTime = 0 s

Time = 0.355

Courant Number mean: 0.222155 max: 0.852132
DILUPBiCG:  Solving for Ux, Initial residual = 9.34553e-07, Final residual = 9.34553e-07, No Iterations 0
DILUPBiCG:  Solving for Uy, Initial residual = 2.02531e-06, Final residual = 2.02531e-06, No Iterations 0
DICPCG:  Solving for p, Initial residual = 1.09498e-06, Final residual = 4.93515e-07, No Iterations 1
time step continuity errors : sum local = 6.71962e-09, global = -2.94476e-20, cumulative = 9.98469e-18
DICPCG:  Solving for p, Initial residual = 5.17528e-07, Final residual = 5.17528e-07, No Iterations 0
time step continuity errors : sum local = 6.90922e-09, global = 4.4949e-19, cumulative = 1.04342e-17
ExecutionTime = 0.16 s  ClockTime = 0 s

Time = 0.36

Courant Number mean: 0.222155 max: 0.852132
DILUPBiCG:  Solving for Ux, Initial residual = 8.90058e-07, Final residual = 8.90058e-07, No Iterations 0
DILUPBiCG:  Solving for Uy, Initial residual = 1.93528e-06, Final residual = 1.93528e-06, No Iterations 0
DICPCG:  Solving for p, Initial residual = 6.5532e-07, Final residual = 6.5532e-07, No Iterations 0
time step continuity errors : sum local = 8.0322e-09, global = -8.64486e-19, cumulative = 9.56969e-18
DICPCG:  Solving for p, Initial residual = 7.9283e-07, Final residual = 7.9283e-07, No Iterations 0
time step continuity errors : sum local = 9.15655e-09, global = -5.66453e-19, cumulative = 9.00324e-18
ExecutionTime = 0.16 s  ClockTime = 0 s

Time = 0.365

Courant Number mean: 0.222155 max: 0.852132
DILUPBiCG:  Solving for Ux, Initial residual = 8.50876e-07, Final residual = 8.50876e-07, No Iterations 0
DILUPBiCG:  Solving for Uy, Initial residual = 1.84787e-06, Final residual = 1.84787e-06, No Iterations 0
DICPCG:  Solving for p, Initial residual = 9.89598e-07, Final residual = 9.89598e-07, No Iterations 0
time step continuity errors : sum local = 1.07671e-08, global = 1.09684e-19, cumulative = 9.11292e-18
DICPCG:  Solving for p, Initial residual = 1.18428e-06, Final residual = 8.07158e-07, No Iterations 2
time step continuity errors : sum local = 9.25091e-09, global = -1.0841e-18, cumulative = 8.02882e-18
ExecutionTime = 0.16 s  ClockTime = 0 s

Time = 0.37

Courant Number mean: 0.222156 max: 0.852132
DILUPBiCG:  Solving for Ux, Initial residual = 7.8701e-07, Final residual = 7.8701e-07, No Iterations 0
DILUPBiCG:  Solving for Uy, Initial residual = 1.70225e-06, Final residual = 1.70225e-06, No Iterations 0
DICPCG:  Solving for p, Initial residual = 1.33424e-06, Final residual = 8.25676e-07, No Iterations 1
time step continuity errors : sum local = 9.4297e-09, global = -1.39976e-18, cumulative = 6.62907e-18
DICPCG:  Solving for p, Initial residual = 1.14097e-06, Final residual = 5.92538e-07, No Iterations 1
time step continuity errors : sum local = 7.52532e-09, global = -2.49478e-19, cumulative = 6.37959e-18
ExecutionTime = 0.16 s  ClockTime = 0 s

Time = 0.375

Courant Number mean: 0.222156 max: 0.852132
DILUPBiCG:  Solving for Ux, Initial residual = 7.54744e-07, Final residual = 7.54744e-07, No Iterations 0
DILUPBiCG:  Solving for Uy, Initial residual = 1.63837e-06, Final residual = 1.63837e-06, No Iterations 0
DICPCG:  Solving for p, Initial residual = 6.49619e-07, Final residual = 6.49619e-07, No Iterations 0
time step continuity errors : sum local = 7.99324e-09, global = -3.53868e-19, cumulative = 6.02572e-18
DICPCG:  Solving for p, Initial residual = 6.90083e-07, Final residual = 6.90083e-07, No Iterations 0
time step continuity errors : sum local = 8.32493e-09, global = 2.31445e-19, cumulative = 6.25717e-18
ExecutionTime = 0.17 s  ClockTime = 0 s

Time = 0.38

Courant Number mean: 0.222156 max: 0.852132
DILUPBiCG:  Solving for Ux, Initial residual = 7.22996e-07, Final residual = 7.22996e-07, No Iterations 0
DILUPBiCG:  Solving for Uy, Initial residual = 1.56642e-06, Final residual = 1.56642e-06, No Iterations 0
DICPCG:  Solving for p, Initial residual = 7.44224e-07, Final residual = 7.44224e-07, No Iterations 0
time step continuity errors : sum local = 8.76874e-09, global = -1.20016e-18, cumulative = 5.05701e-18
DICPCG:  Solving for p, Initial residual = 8.19466e-07, Final residual = 8.19466e-07, No Iterations 0
time step continuity errors : sum local = 9.38552e-09, global = -7.19564e-19, cumulative = 4.33745e-18
ExecutionTime = 0.17 s  ClockTime = 0 s

Time = 0.385

Courant Number mean: 0.222156 max: 0.852132
DILUPBiCG:  Solving for Ux, Initial residual = 6.91593e-07, Final residual = 6.91593e-07, No Iterations 0
DILUPBiCG:  Solving for Uy, Initial residual = 1.4967e-06, Final residual = 1.4967e-06, No Iterations 0
DICPCG:  Solving for p, Initial residual = 9.52083e-07, Final residual = 9.52083e-07, No Iterations 0
time step continuity errors : sum local = 1.04726e-08, global = -9.14035e-20, cumulative = 4.24604e-18
DICPCG:  Solving for p, Initial residual = 1.09486e-06, Final residual = 9.36038e-07, No Iterations 1
time step continuity errors : sum local = 1.03238e-08, global = 8.9625e-19, cumulative = 5.14229e-18
ExecutionTime = 0.17 s  ClockTime = 0 s

Time = 0.39

Courant Number mean: 0.222156 max: 0.852132
DILUPBiCG:  Solving for Ux, Initial residual = 6.32368e-07, Final residual = 6.32368e-07, No Iterations 0
DILUPBiCG:  Solving for Uy, Initial residual = 1.37144e-06, Final residual = 1.37144e-06, No Iterations 0
DICPCG:  Solving for p, Initial residual = 1.16025e-06, Final residual = 4.68264e-07, No Iterations 1
time step continuity errors : sum local = 6.48293e-09, global = -1.31853e-19, cumulative = 5.01044e-18
DICPCG:  Solving for p, Initial residual = 4.69171e-07, Final residual = 4.69171e-07, No Iterations 0
time step continuity errors : sum local = 6.4873e-09, global = 4.52551e-19, cumulative = 5.46299e-18
ExecutionTime = 0.17 s  ClockTime = 0 s

Time = 0.395

Courant Number mean: 0.222156 max: 0.852132
DILUPBiCG:  Solving for Ux, Initial residual = 5.97428e-07, Final residual = 5.97428e-07, No Iterations 0
DILUPBiCG:  Solving for Uy, Initial residual = 1.30711e-06, Final residual = 1.30711e-06, No Iterations 0
DICPCG:  Solving for p, Initial residual = 6.02641e-07, Final residual = 6.02641e-07, No Iterations 0
time step continuity errors : sum local = 7.57869e-09, global = -9.79382e-20, cumulative = 5.36505e-18
DICPCG:  Solving for p, Initial residual = 7.40176e-07, Final residual = 7.40176e-07, No Iterations 0
time step continuity errors : sum local = 8.70499e-09, global = -2.8546e-19, cumulative = 5.07959e-18
ExecutionTime = 0.18 s  ClockTime = 0 s

Time = 0.4

Courant Number mean: 0.222156 max: 0.852132
DILUPBiCG:  Solving for Ux, Initial residual = 5.70983e-07, Final residual = 5.70983e-07, No Iterations 0
DILUPBiCG:  Solving for Uy, Initial residual = 1.24784e-06, Final residual = 1.24784e-06, No Iterations 0
DICPCG:  Solving for p, Initial residual = 9.23769e-07, Final residual = 9.23769e-07, No Iterations 0
time step continuity errors : sum local = 1.02091e-08, global = 4.24923e-19, cumulative = 5.50451e-18
DICPCG:  Solving for p, Initial residual = 1.08925e-06, Final residual = 7.2143e-07, No Iterations 2
time step continuity errors : sum local = 8.54284e-09, global = -1.36898e-19, cumulative = 5.36762e-18
ExecutionTime = 0.18 s  ClockTime = 0 s

Time = 0.405

Courant Number mean: 0.222156 max: 0.852132
DILUPBiCG:  Solving for Ux, Initial residual = 5.49662e-07, Final residual = 5.49662e-07, No Iterations 0
DILUPBiCG:  Solving for Uy, Initial residual = 1.26106e-06, Final residual = 1.26106e-06, No Iterations 0
DICPCG:  Solving for p, Initial residual = 1.29017e-06, Final residual = 8.78689e-07, No Iterations 1
time step continuity errors : sum local = 9.83653e-09, global = 1.20272e-19, cumulative = 5.48789e-18
DICPCG:  Solving for p, Initial residual = 1.21522e-06, Final residual = 7.07853e-07, No Iterations 1
time step continuity errors : sum local = 8.43596e-09, global = -2.02411e-19, cumulative = 5.28548e-18
ExecutionTime = 0.18 s  ClockTime = 0 s

Time = 0.41

Courant Number mean: 0.222157 max: 0.852132
DILUPBiCG:  Solving for Ux, Initial residual = 5.03429e-07, Final residual = 5.03429e-07, No Iterations 0
DILUPBiCG:  Solving for Uy, Initial residual = 1.12994e-06, Final residual = 1.12994e-06, No Iterations 0
DICPCG:  Solving for p, Initial residual = 8.48153e-07, Final residual = 8.48153e-07, No Iterations 0
time step continuity errors : sum local = 9.58603e-09, global = -7.42146e-19, cumulative = 4.54333e-18
DICPCG:  Solving for p, Initial residual = 9.38386e-07, Final residual = 9.38386e-07, No Iterations 0
time step continuity errors : sum local = 1.03257e-08, global = 6.41479e-19, cumulative = 5.18481e-18
ExecutionTime = 0.18 s  ClockTime = 0 s

Time = 0.415

Courant Number mean: 0.222157 max: 0.852132
DILUPBiCG:  Solving for Ux, Initial residual = 4.80248e-07, Final residual = 4.80248e-07, No Iterations 0
DILUPBiCG:  Solving for Uy, Initial residual = 1.07481e-06, Final residual = 1.07481e-06, No Iterations 0
DICPCG:  Solving for p, Initial residual = 1.0251e-06, Final residual = 7.19992e-07, No Iterations 1
time step continuity errors : sum local = 8.52551e-09, global = -4.6744e-19, cumulative = 4.71737e-18
DICPCG:  Solving for p, Initial residual = 8.6053e-07, Final residual = 8.6053e-07, No Iterations 0
time step continuity errors : sum local = 9.67345e-09, global = 4.14831e-19, cumulative = 5.1322e-18
ExecutionTime = 0.18 s  ClockTime = 0 s

Time = 0.42

Courant Number mean: 0.222157 max: 0.852132
DILUPBiCG:  Solving for Ux, Initial residual = 4.60782e-07, Final residual = 4.60782e-07, No Iterations 0
DILUPBiCG:  Solving for Uy, Initial residual = 1.02012e-06, Final residual = 1.02012e-06, No Iterations 0
DICPCG:  Solving for p, Initial residual = 1.08927e-06, Final residual = 4.69251e-07, No Iterations 1
time step continuity errors : sum local = 6.458e-09, global = -2.46996e-19, cumulative = 4.8852e-18
DICPCG:  Solving for p, Initial residual = 4.80986e-07, Final residual = 4.80986e-07, No Iterations 0
time step continuity errors : sum local = 6.55001e-09, global = -1.01991e-19, cumulative = 4.78321e-18
ExecutionTime = 0.18 s  ClockTime = 0 s

Time = 0.425

Courant Number mean: 0.222157 max: 0.852133
DILUPBiCG:  Solving for Ux, Initial residual = 4.32433e-07, Final residual = 4.32433e-07, No Iterations 0
DILUPBiCG:  Solving for Uy, Initial residual = 9.52278e-07, Final residual = 9.52278e-07, No Iterations 0
DICPCG:  Solving for p, Initial residual = 5.97455e-07, Final residual = 5.97455e-07, No Iterations 0
time step continuity errors : sum local = 7.50057e-09, global = -3.4874e-19, cumulative = 4.43447e-18
DICPCG:  Solving for p, Initial residual = 6.90237e-07, Final residual = 6.90237e-07, No Iterations 0
time step continuity errors : sum local = 8.25932e-09, global = 2.28715e-19, cumulative = 4.66319e-18
ExecutionTime = 0.19 s  ClockTime = 0 s

Time = 0.43

Courant Number mean: 0.222157 max: 0.852133
DILUPBiCG:  Solving for Ux, Initial residual = 4.13813e-07, Final residual = 4.13813e-07, No Iterations 0
DILUPBiCG:  Solving for Uy, Initial residual = 9.09387e-07, Final residual = 9.09387e-07, No Iterations 0
DICPCG:  Solving for p, Initial residual = 8.16515e-07, Final residual = 8.16515e-07, No Iterations 0
time step continuity errors : sum local = 9.29278e-09, global = -1.00833e-19, cumulative = 4.56236e-18
DICPCG:  Solving for p, Initial residual = 9.3725e-07, Final residual = 9.3725e-07, No Iterations 0
time step continuity errors : sum local = 1.02815e-08, global = 5.87298e-19, cumulative = 5.14965e-18
ExecutionTime = 0.19 s  ClockTime = 0 s

Time = 0.435

Courant Number mean: 0.222157 max: 0.852133
DILUPBiCG:  Solving for Ux, Initial residual = 3.95709e-07, Final residual = 3.95709e-07, No Iterations 0
DILUPBiCG:  Solving for Uy, Initial residual = 8.67946e-07, Final residual = 8.67946e-07, No Iterations 0
DICPCG:  Solving for p, Initial residual = 1.09181e-06, Final residual = 9.19338e-07, No Iterations 1
time step continuity errors : sum local = 1.01161e-08, global = 6.80191e-19, cumulative = 5.82984e-18
DICPCG:  Solving for p, Initial residual = 1.10788e-06, Final residual = 4.86369e-07, No Iterations 1
time step continuity errors : sum local = 6.56632e-09, global = -3.89767e-19, cumulative = 5.44008e-18
ExecutionTime = 0.19 s  ClockTime = 0 s

Time = 0.44

Courant Number mean: 0.222157 max: 0.852133
DILUPBiCG:  Solving for Ux, Initial residual = 3.62894e-07, Final residual = 3.62894e-07, No Iterations 0
DILUPBiCG:  Solving for Uy, Initial residual = 7.8751e-07, Final residual = 7.8751e-07, No Iterations 0
DICPCG:  Solving for p, Initial residual = 5.15687e-07, Final residual = 5.15687e-07, No Iterations 0
time step continuity errors : sum local = 6.80118e-09, global = -4.38737e-19, cumulative = 5.00134e-18
DICPCG:  Solving for p, Initial residual = 5.92248e-07, Final residual = 5.92248e-07, No Iterations 0
time step continuity errors : sum local = 7.42746e-09, global = 2.86618e-19, cumulative = 5.28796e-18
ExecutionTime = 0.19 s  ClockTime = 0 s

Time = 0.445

Courant Number mean: 0.222157 max: 0.852133
DILUPBiCG:  Solving for Ux, Initial residual = 3.45828e-07, Final residual = 3.45828e-07, No Iterations 0
DILUPBiCG:  Solving for Uy, Initial residual = 7.48936e-07, Final residual = 7.48936e-07, No Iterations 0
DICPCG:  Solving for p, Initial residual = 7.0592e-07, Final residual = 7.0592e-07, No Iterations 0
time step continuity errors : sum local = 8.35833e-09, global = -3.42535e-19, cumulative = 4.94542e-18
DICPCG:  Solving for p, Initial residual = 8.11002e-07, Final residual = 8.11002e-07, No Iterations 0
time step continuity errors : sum local = 9.21986e-09, global = 1.20826e-18, cumulative = 6.15369e-18
ExecutionTime = 0.19 s  ClockTime = 0 s

Time = 0.45

Courant Number mean: 0.222157 max: 0.852133
DILUPBiCG:  Solving for Ux, Initial residual = 3.30324e-07, Final residual = 3.30324e-07, No Iterations 0
DILUPBiCG:  Solving for Uy, Initial residual = 7.13899e-07, Final residual = 7.13899e-07, No Iterations 0
DICPCG:  Solving for p, Initial residual = 9.33868e-07, Final residual = 9.33868e-07, No Iterations 0
time step continuity errors : sum local = 1.02274e-08, global = 2.88934e-19, cumulative = 6.44262e-18
DICPCG:  Solving for p, Initial residual = 1.03893e-06, Final residual = 9.4276e-07, No Iterations 1
time step continuity errors : sum local = 1.03182e-08, global = -3.33106e-19, cumulative = 6.10951e-18
ExecutionTime = 0.2 s  ClockTime = 0 s

Time = 0.455

Courant Number mean: 0.222157 max: 0.852133
DILUPBiCG:  Solving for Ux, Initial residual = 3.26579e-07, Final residual = 3.26579e-07, No Iterations 0
DILUPBiCG:  Solving for Uy, Initial residual = 7.29925e-07, Final residual = 7.29925e-07, No Iterations 0
DICPCG:  Solving for p, Initial residual = 1.34342e-06, Final residual = 5.29805e-07, No Iterations 1
time step continuity errors : sum local = 6.94283e-09, global = -3.14577e-19, cumulative = 5.79494e-18
DICPCG:  Solving for p, Initial residual = 6.62548e-07, Final residual = 6.62548e-07, No Iterations 0
time step continuity errors : sum local = 8.03096e-09, global = -5.77951e-19, cumulative = 5.21699e-18
ExecutionTime = 0.2 s  ClockTime = 0 s

Time = 0.46

Courant Number mean: 0.222157 max: 0.852133
DILUPBiCG:  Solving for Ux, Initial residual = 3.06637e-07, Final residual = 3.06637e-07, No Iterations 0
DILUPBiCG:  Solving for Uy, Initial residual = 6.78333e-07, Final residual = 6.78333e-07, No Iterations 0
DICPCG:  Solving for p, Initial residual = 9.16989e-07, Final residual = 9.16989e-07, No Iterations 0
time step continuity errors : sum local = 1.01167e-08, global = -9.91045e-19, cumulative = 4.22594e-18
DICPCG:  Solving for p, Initial residual = 1.13133e-06, Final residual = 8.71644e-07, No Iterations 1
time step continuity errors : sum local = 9.74109e-09, global = 1.36981e-19, cumulative = 4.36292e-18
ExecutionTime = 0.2 s  ClockTime = 0 s

Time = 0.465

Courant Number mean: 0.222157 max: 0.852133
DILUPBiCG:  Solving for Ux, Initial residual = 2.80581e-07, Final residual = 2.80581e-07, No Iterations 0
DILUPBiCG:  Solving for Uy, Initial residual = 6.10212e-07, Final residual = 6.10212e-07, No Iterations 0
DICPCG:  Solving for p, Initial residual = 1.01727e-06, Final residual = 4.6202e-07, No Iterations 1
time step continuity errors : sum local = 6.3767e-09, global = -3.86211e-19, cumulative = 3.97671e-18
DICPCG:  Solving for p, Initial residual = 5.06814e-07, Final residual = 5.06814e-07, No Iterations 0
time step continuity errors : sum local = 6.73971e-09, global = -3.65366e-19, cumulative = 3.61135e-18
ExecutionTime = 0.2 s  ClockTime = 0 s

Time = 0.47

Courant Number mean: 0.222157 max: 0.852133
DILUPBiCG:  Solving for Ux, Initial residual = 2.61053e-07, Final residual = 2.61053e-07, No Iterations 0
DILUPBiCG:  Solving for Uy, Initial residual = 5.70656e-07, Final residual = 5.70656e-07, No Iterations 0
DICPCG:  Solving for p, Initial residual = 6.2805e-07, Final residual = 6.2805e-07, No Iterations 0
time step continuity errors : sum local = 7.72929e-09, global = 4.41466e-19, cumulative = 4.05281e-18
DICPCG:  Solving for p, Initial residual = 7.10391e-07, Final residual = 7.10391e-07, No Iterations 0
time step continuity errors : sum local = 8.40221e-09, global = 8.36859e-19, cumulative = 4.88967e-18
ExecutionTime = 0.2 s  ClockTime = 0 s

Time = 0.475

Courant Number mean: 0.222157 max: 0.852133
DILUPBiCG:  Solving for Ux, Initial residual = 2.4869e-07, Final residual = 2.4869e-07, No Iterations 0
DILUPBiCG:  Solving for Uy, Initial residual = 5.42188e-07, Final residual = 5.42188e-07, No Iterations 0
DICPCG:  Solving for p, Initial residual = 8.08782e-07, Final residual = 8.08782e-07, No Iterations 0
time step continuity errors : sum local = 9.20686e-09, global = 1.3225e-18, cumulative = 6.21217e-18
DICPCG:  Solving for p, Initial residual = 8.8681e-07, Final residual = 8.8681e-07, No Iterations 0
time step continuity errors : sum local = 9.84536e-09, global = 1.4235e-18, cumulative = 7.63566e-18
ExecutionTime = 0.21 s  ClockTime = 0 s

Time = 0.48

Courant Number mean: 0.2[4m PyFoam WARNING on line 232 of file /home/florian/software/src/PyFoam/PyFoam/Execution/FoamThread.py : Process 3076 was already dead (B[m
22157 max: 0.852133
DILUPBiCG:  Solving for Ux, Initial residual = 2.37444e-07, Final residual = 2.37444e-07, No Iterations 0
DILUPBiCG:  Solving for Uy, Initial residual = 5.16366e-07, Final residual = 5.16366e-07, No Iterations 0
DICPCG:  Solving for p, Initial residual = 9.72673e-07, Final residual = 9.72673e-07, No Iterations 0
time step continuity errors : sum local = 1.05482e-08, global = -5.84899e-19, cumulative = 7.05076e-18
DICPCG:  Solving for p, Initial residual = 1.04414e-06, Final residual = 6.86638e-07, No Iterations 1
time step continuity errors : sum local = 8.19543e-09, global = 6.73325e-20, cumulative = 7.1181e-18
ExecutionTime = 0.21 s  ClockTime = 0 s

Time = 0.485

Courant Number mean: 0.222158 max: 0.852133
DILUPBiCG:  Solving for Ux, Initial residual = 2.3334e-07, Final residual = 2.3334e-07, No Iterations 0
DILUPBiCG:  Solving for Uy, Initial residual = 5.29616e-07, Final residual = 5.29616e-07, No Iterations 0
DICPCG:  Solving for p, Initial residual = 8.89836e-07, Final residual = 8.89836e-07, No Iterations 0
time step continuity errors : sum local = 9.86111e-09, global = -1.75776e-19, cumulative = 6.94232e-18
DICPCG:  Solving for p, Initial residual = 1.18331e-06, Final residual = 5.32702e-07, No Iterations 1
time step continuity errors : sum local = 6.93835e-09, global = 9.72764e-20, cumulative = 7.0396e-18
ExecutionTime = 0.21 s  ClockTime = 0 s

Time = 0.49

Courant Number mean: 0.222158 max: 0.852133
DILUPBiCG:  Solving for Ux, Initial residual = 2.15876e-07, Final residual = 2.15876e-07, No Iterations 0
DILUPBiCG:  Solving for Uy, Initial residual = 4.89799e-07, Final residual = 4.89799e-07, No Iterations 0
DICPCG:  Solving for p, Initial residual = 6.74341e-07, Final residual = 6.74341e-07, No Iterations 0
time step continuity errors : sum local = 8.09606e-09, global = -3.26736e-20, cumulative = 7.00692e-18
DICPCG:  Solving for p, Initial residual = 7.93191e-07, Final residual = 7.93191e-07, No Iterations 0
time step continuity errors : sum local = 9.06921e-09, global = -3.24255e-20, cumulative = 6.9745e-18
ExecutionTime = 0.21 s  ClockTime = 0 s

Time = 0.495

Courant Number mean: 0.222158 max: 0.852133
DILUPBiCG:  Solving for Ux, Initial residual = 2.04807e-07, Final residual = 2.04807e-07, No Iterations 0
DILUPBiCG:  Solving for Uy, Initial residual = 4.6275e-07, Final residual = 4.6275e-07, No Iterations 0
DICPCG:  Solving for p, Initial residual = 9.39302e-07, Final residual = 9.39302e-07, No Iterations 0
time step continuity errors : sum local = 1.02661e-08, global = -2.58908e-19, cumulative = 6.71559e-18
DICPCG:  Solving for p, Initial residual = 1.05401e-06, Final residual = 6.27193e-07, No Iterations 1
time step continuity errors : sum local = 7.70284e-09, global = -1.18849e-18, cumulative = 5.5271e-18
ExecutionTime = 0.21 s  ClockTime = 0 s

Time = 0.5

Courant Number mean: 0.222158 max: 0.852133
DILUPBiCG:  Solving for Ux, Initial residual = 1.91732e-07, Final residual = 1.91732e-07, No Iterations 0
DILUPBiCG:  Solving for Uy, Initial residual = 4.22487e-07, Final residual = 4.22487e-07, No Iterations 0
DICPCG:  Solving for p, Initial residual = 7.73724e-07, Final residual = 7.73724e-07, No Iterations 0
time step continuity errors : sum local = 8.90153e-09, global = -4.18636e-19, cumulative = 5.10846e-18
DICPCG:  Solving for p, Initial residual = 8.95145e-07, Final residual = 8.95145e-07, No Iterations 0
time step continuity errors : sum local = 9.89403e-09, global = -8.10141e-19, cumulative = 4.29832e-18
ExecutionTime = 0.21 s  ClockTime = 0 s

End

Finalising parallel run
Killing PID 3076
2012-07-07 18:25:49,590 - workers.workers.FoamRunner:DEBUG - pyFoamRunner.py --autosense-parallel icoFoam -case /home/florian/flof/src/tests/files/cavity.target returned with 0
